! ============================================================
! Reduced CH4 Mechanism - 20 species
! Generated by Mechanism Reduction Tool
! Species: 20
! Reactions: 42
! Date: 2026-05-27
! ============================================================

ELEMENTS
    H    O    C    N    Ar
END

SPECIES
     H2 H O O2 OH H2O HO2 H2O2 CH CH2 CH3 CH4 CO CO2 HCO CH2O C2H2 C2H4
    N2 NNH
END

THERMO
! NASA polynomials (simplified)
H2              010100 G C0 H1 O0 N0         0.00   300.00  5000.00        1
 1.00000000E+00 1.00000000E-03 1.00000000E-06 0.00000000E+00 0.00000000E+00    2
-1.00000000E+03 1.00000000E+01 1.00000000E+00 1.00000000E-03 1.00000000E-06    3
 0.00000000E+00 0.00000000E+00-1.00000000E+03 1.00000000E+01                   4
H               010100 G C0 H1 O0 N0         0.00   300.00  5000.00        1
 1.00000000E+00 1.00000000E-03 1.00000000E-06 0.00000000E+00 0.00000000E+00    2
-1.00000000E+03 1.00000000E+01 1.00000000E+00 1.00000000E-03 1.00000000E-06    3
 0.00000000E+00 0.00000000E+00-1.00000000E+03 1.00000000E+01                   4
O               010100 G C0 H0 O1 N0         0.00   300.00  5000.00        1
 1.00000000E+00 1.00000000E-03 1.00000000E-06 0.00000000E+00 0.00000000E+00    2
-1.00000000E+03 1.00000000E+01 1.00000000E+00 1.00000000E-03 1.00000000E-06    3
 0.00000000E+00 0.00000000E+00-1.00000000E+03 1.00000000E+01                   4
O2              010100 G C0 H0 O1 N0         0.00   300.00  5000.00        1
 1.00000000E+00 1.00000000E-03 1.00000000E-06 0.00000000E+00 0.00000000E+00    2
-1.00000000E+03 1.00000000E+01 1.00000000E+00 1.00000000E-03 1.00000000E-06    3
 0.00000000E+00 0.00000000E+00-1.00000000E+03 1.00000000E+01                   4
OH              010100 G C0 H1 O1 N0         0.00   300.00  5000.00        1
 1.00000000E+00 1.00000000E-03 1.00000000E-06 0.00000000E+00 0.00000000E+00    2
-1.00000000E+03 1.00000000E+01 1.00000000E+00 1.00000000E-03 1.00000000E-06    3
 0.00000000E+00 0.00000000E+00-1.00000000E+03 1.00000000E+01                   4
H2O             010100 G C0 H1 O1 N0         0.00   300.00  5000.00        1
 1.00000000E+00 1.00000000E-03 1.00000000E-06 0.00000000E+00 0.00000000E+00    2
-1.00000000E+03 1.00000000E+01 1.00000000E+00 1.00000000E-03 1.00000000E-06    3
 0.00000000E+00 0.00000000E+00-1.00000000E+03 1.00000000E+01                   4
HO2             010100 G C0 H1 O1 N0         0.00   300.00  5000.00        1
 1.00000000E+00 1.00000000E-03 1.00000000E-06 0.00000000E+00 0.00000000E+00    2
-1.00000000E+03 1.00000000E+01 1.00000000E+00 1.00000000E-03 1.00000000E-06    3
 0.00000000E+00 0.00000000E+00-1.00000000E+03 1.00000000E+01                   4
H2O2            010100 G C0 H1 O1 N0         0.00   300.00  5000.00        1
 1.00000000E+00 1.00000000E-03 1.00000000E-06 0.00000000E+00 0.00000000E+00    2
-1.00000000E+03 1.00000000E+01 1.00000000E+00 1.00000000E-03 1.00000000E-06    3
 0.00000000E+00 0.00000000E+00-1.00000000E+03 1.00000000E+01                   4
CH              010100 G C1 H1 O0 N0         0.00   300.00  5000.00        1
 1.00000000E+00 1.00000000E-03 1.00000000E-06 0.00000000E+00 0.00000000E+00    2
-1.00000000E+03 1.00000000E+01 1.00000000E+00 1.00000000E-03 1.00000000E-06    3
 0.00000000E+00 0.00000000E+00-1.00000000E+03 1.00000000E+01                   4
CH2             010100 G C1 H1 O0 N0         0.00   300.00  5000.00        1
 1.00000000E+00 1.00000000E-03 1.00000000E-06 0.00000000E+00 0.00000000E+00    2
-1.00000000E+03 1.00000000E+01 1.00000000E+00 1.00000000E-03 1.00000000E-06    3
 0.00000000E+00 0.00000000E+00-1.00000000E+03 1.00000000E+01                   4
CH3             010100 G C1 H1 O0 N0         0.00   300.00  5000.00        1
 1.00000000E+00 1.00000000E-03 1.00000000E-06 0.00000000E+00 0.00000000E+00    2
-1.00000000E+03 1.00000000E+01 1.00000000E+00 1.00000000E-03 1.00000000E-06    3
 0.00000000E+00 0.00000000E+00-1.00000000E+03 1.00000000E+01                   4
CH4             010100 G C1 H1 O0 N0         0.00   300.00  5000.00        1
 1.00000000E+00 1.00000000E-03 1.00000000E-06 0.00000000E+00 0.00000000E+00    2
-1.00000000E+03 1.00000000E+01 1.00000000E+00 1.00000000E-03 1.00000000E-06    3
 0.00000000E+00 0.00000000E+00-1.00000000E+03 1.00000000E+01                   4
CO              010100 G C1 H0 O1 N0         0.00   300.00  5000.00        1
 1.00000000E+00 1.00000000E-03 1.00000000E-06 0.00000000E+00 0.00000000E+00    2
-1.00000000E+03 1.00000000E+01 1.00000000E+00 1.00000000E-03 1.00000000E-06    3
 0.00000000E+00 0.00000000E+00-1.00000000E+03 1.00000000E+01                   4
CO2             010100 G C1 H0 O1 N0         0.00   300.00  5000.00        1
 1.00000000E+00 1.00000000E-03 1.00000000E-06 0.00000000E+00 0.00000000E+00    2
-1.00000000E+03 1.00000000E+01 1.00000000E+00 1.00000000E-03 1.00000000E-06    3
 0.00000000E+00 0.00000000E+00-1.00000000E+03 1.00000000E+01                   4
HCO             010100 G C1 H1 O1 N0         0.00   300.00  5000.00        1
 1.00000000E+00 1.00000000E-03 1.00000000E-06 0.00000000E+00 0.00000000E+00    2
-1.00000000E+03 1.00000000E+01 1.00000000E+00 1.00000000E-03 1.00000000E-06    3
 0.00000000E+00 0.00000000E+00-1.00000000E+03 1.00000000E+01                   4
CH2O            010100 G C1 H1 O1 N0         0.00   300.00  5000.00        1
 1.00000000E+00 1.00000000E-03 1.00000000E-06 0.00000000E+00 0.00000000E+00    2
-1.00000000E+03 1.00000000E+01 1.00000000E+00 1.00000000E-03 1.00000000E-06    3
 0.00000000E+00 0.00000000E+00-1.00000000E+03 1.00000000E+01                   4
C2H2            010100 G C1 H1 O0 N0         0.00   300.00  5000.00        1
 1.00000000E+00 1.00000000E-03 1.00000000E-06 0.00000000E+00 0.00000000E+00    2
-1.00000000E+03 1.00000000E+01 1.00000000E+00 1.00000000E-03 1.00000000E-06    3
 0.00000000E+00 0.00000000E+00-1.00000000E+03 1.00000000E+01                   4
C2H4            010100 G C1 H1 O0 N0         0.00   300.00  5000.00        1
 1.00000000E+00 1.00000000E-03 1.00000000E-06 0.00000000E+00 0.00000000E+00    2
-1.00000000E+03 1.00000000E+01 1.00000000E+00 1.00000000E-03 1.00000000E-06    3
 0.00000000E+00 0.00000000E+00-1.00000000E+03 1.00000000E+01                   4
N2              010100 G C0 H0 O0 N1         0.00   300.00  5000.00        1
 1.00000000E+00 1.00000000E-03 1.00000000E-06 0.00000000E+00 0.00000000E+00    2
-1.00000000E+03 1.00000000E+01 1.00000000E+00 1.00000000E-03 1.00000000E-06    3
 0.00000000E+00 0.00000000E+00-1.00000000E+03 1.00000000E+01                   4
NNH             010100 G C0 H1 O0 N2         0.00   300.00  5000.00        1
 1.00000000E+00 1.00000000E-03 1.00000000E-06 0.00000000E+00 0.00000000E+00    2
-1.00000000E+03 1.00000000E+01 1.00000000E+00 1.00000000E-03 1.00000000E-06    3
 0.00000000E+00 0.00000000E+00-1.00000000E+03 1.00000000E+01                   4
END

REACTIONS    MOL/CM3  CAL/MOLE  KELVINS

  H2 + O2 => 2OH                                 1.700E+13  0.000  47800.000
  H + O2 <=> O + OH                              5.100E+16 -0.816  16507.000
  H + H2O <=> H2 + OH                            1.170E+09  1.300  3626.000
  O + H2O <=> 2OH                                1.800E+10  1.140  17979.000
  HO2 + H <=> 2OH                                7.100E+14  0.000  2949.000
  HO2 + H <=> H2 + O2                            1.400E+14  0.000  1068.000
  HO2 + O <=> OH + O2                            3.000E+13  0.000  0.000
  HO2 + OH <=> H2O + O2                          2.900E+13  0.000 -500.000
  2HO2 <=> H2O2 + O2                             1.300E+11  0.000 -1630.000
  H2O2 + H <=> H2O + OH                          1.000E+14  0.000  3588.000
  H2O2 + H <=> H2 + HO2                          4.800E+13  0.000  6710.000
  H2O2 + O <=> OH + HO2                          9.500E+12  0.000  3970.000
  H2O2 + OH <=> H2O + HO2                        5.400E+12  0.000  1839.000
  CH4 + H <=> CH3 + H2                           6.600E+08  1.600  10840.000
  CH4 + O <=> CH3 + OH                           1.900E+09  1.500  8600.000
  CH4 + OH <=> CH3 + H2O                         1.600E+06  2.100  2460.000
  CH4 + O2 <=> CH3 + HO2                         7.900E+13  0.000  56000.000
  CH4 + HO2 <=> CH3 + H2O2                       6.000E+11  0.000  18100.000
  CH3 + O <=> CH2O + H                           8.400E+13  0.000  2000.000
  CH3 + OH <=> CH2O + H2                         1.500E+13  0.000  5000.000
  CH3 + O2 <=> CH2O + OH                         1.900E+13  0.000  25000.000
  CH2O + H <=> HCO + H2                          5.500E+13  0.000  3800.000
  CH2O + O <=> HCO + OH                          3.900E+13  0.000  4400.000
  CH2O + OH <=> HCO + H2O                        5.200E+12  0.000  480.000
  CH2O + O2 <=> HCO + HO2                        1.000E+12  0.000  28000.000
  HCO + H <=> CO + H2                            4.800E+13  0.000  0.000
  HCO + O <=> CO + OH                            3.000E+13  0.000  0.000
  HCO + OH <=> CO + H2O                          1.000E+14  0.000  0.000
  HCO + O2 <=> CO + HO2                          9.100E+12  0.000  0.000
  CO + OH <=> CO2 + H                            4.400E+06  1.500 -740.000
  CO + HO2 <=> CO2 + OH                          1.500E+14  0.000  23650.000
  C2H4 + O <=> CH3 + HCO                         1.600E+13  0.000  960.000
  CH + O <=> CO + H                              3.300E+13  0.000  0.000
  CH + O2 <=> CO + OH                            2.000E+13  0.000  0.000
  CH + OH <=> CH2 + OH                           5.000E+12  0.000  0.000
  CH + H2O <=> CH2O + H                          3.800E+12  0.000 -800.000
  CH2 + H <=> CH + H2                            4.000E+13  0.000  2700.000
  CH2 + O <=> CO + 2H                            8.000E+13  0.000  0.000
  CH2 + OH <=> CH2O + H                          2.000E+13  0.000  0.000
  CH2 + O2 <=> CO2 + 2H                          1.600E+12  0.000  1000.000
  CH2 + CH3 <=> C2H4 + H                         4.000E+13  0.000  0.000
  NNH + O <=> N2 + OH                            5.000E+13  0.000  0.000

END